-------------------------------------------------------
          Amber 22 SANDER                              2022
          -------------------------------------------------------

  [-O]verwriting output

File Assignments:

 Here is the input file:

10-mer DNA MD in-vacuo, 12 angstrom cut off
 &cntrl
  imin = 0, ntb = 0,
  igb = 0, ntpr = 100, ntwx = 100,
  ntt = 3, gamma_ln = 1.0,
  tempi = 300.0, temp0 = 300.0,
  nstlim = 100000, dt = 0.001,
  cut = 12.0
 /

--------------------------------------------------------------------------------
   1.  RESOURCE   USE:
--------------------------------------------------------------------------------

 NATOM  =     758 NTYPES =      15 NBONH =     272 MBONA  =     544
 NTHETH =     640 MTHETA =     836 NPHIH =    1390 MPHIA  =    1894
 NHPARM =       0 NPARM  =       0 NNB   =    4210 NRES   =      24
 NBONA  =     544 NTHETA =     836 NPHIA =    1894 NUMBND =      50
 NUMANG =     103 NPTRA  =      77 NATYP =      29 NPHB   =       0
 IFBOX  =       0 NMXRS  =      34 IFCAP =       0 NEXTRA =       0
 NCOPY  =       0

--------------------------------------------------------------------------------
   2.  CONTROL  DATA  FOR  THE  RUN
--------------------------------------------------------------------------------

default_name

General flags:
     imin    =       0, nmropt  =       0

Nature and format of input:
     ntx     =       1, irest   =       0, ntrx    =       1

Nature and format of output:
     ntxo    =       2, ntpr    =     100, ntrx    =       1, ntwr    =  100000
     iwrap   =       0, ntwx    =     100, ntwv    =       0, ntwe    =       0
     ioutfm  =       1, ntwprt  =       0, idecomp =       0, rbornstat=      0

Potential function:
     ntf     =       1, ntb     =       0, igb     =       0, nsnb    =      25
     ipol    =       0, gbsa    =       0, iesp    =       0
     dielc   =   1.00000, cut     =  12.00000, intdiel =   1.00000

Frozen or restrained atoms:
     ibelly  =       0, ntr     =       0

Molecular dynamics:
     nstlim  =    100000, nscm    =      1000, nrespa  =         1
     t       =   0.00000, dt      =   0.00100, vlimit  =  20.00000

Langevin dynamics temperature regulation:
     ig      =   71277
     temp0   = 300.00000, tempi   = 300.00000, gamma_ln=   1.00000

--------------------------------------------------------------------------------
   3.  ATOMIC COORDINATES AND VELOCITIES
--------------------------------------------------------------------------------

default_name
 begin time read from input coords =     0.000 ps

 Number of triangulated 3-point waters found:        0

     Sum of charges from parm topology file = -21.99999986

--------------------------------------------------------------------------------
   4.  RESULTS
 NSTEP =        0   TIME(PS) =       0.000  TEMP(K) =   299.61  PRESS =     0.0
 Etot   =     -2751.3345  EKtot   =       676.9496  EPtot      =     -3428.2840
 BOND   =        37.0482  ANGLE   =       107.7566  DIHED      =       637.7764
 1-4 NB =       188.3005  1-4 EEL =     -3188.2567  VDWAALS    =      -420.6286
 EELEC  =      -790.2805  EHBOND  =         0.0000  RESTRAINT  =         0.0000
 ------------------------------------------------------------------------------

      A V E R A G E S   O V E R  100000 S T E P S

 NSTEP =   100000   TIME(PS) =     100.000  TEMP(K) =   297.71  PRESS =     0.0
 Etot   =     -1228.1383  EKtot   =       672.6507  EPtot      =     -1900.7890
 BOND   =       284.4317  ANGLE   =       407.8932  DIHED      =       714.5409
 1-4 NB =       197.0588  1-4 EEL =     -3185.9021  VDWAALS    =      -380.1290
 EELEC  =        61.3174  EHBOND  =         0.0000  RESTRAINT  =         0.0000
 ------------------------------------------------------------------------------

      R M S  F L U C T U A T I O N S

 NSTEP =   100000   TIME(PS) =     100.000  TEMP(K) =    13.35  PRESS =     0.0
 Etot   =       277.0330  EKtot   =        30.1681  EPtot      =       270.0464
 BOND   =        16.6699  ANGLE   =        19.2047  DIHED      =        11.5774
 1-4 NB =         5.3994  1-4 EEL =        16.7359  VDWAALS    =        11.5211
 EELEC  =       265.2664  EHBOND  =         0.0000  RESTRAINT  =         0.0000
 ------------------------------------------------------------------------------
