-------------------------------------------------------
          Amber 22 SANDER                              2022
          -------------------------------------------------------

  [-O]verwriting output

File Assignments:

 Here is the input file:

dodecamer DNA MD Generalise Born, no cut off
 &cntrl
  imin = 0, ntb = 0,
  igb = 1, ntpr = 100, ntwx = 100,
  ntt = 3, gamma_ln = 1.0,
  tempi = 300.0, temp0 = 300.0,
  nstlim = 100000, dt = 0.001,
  cut = 999
 /

--------------------------------------------------------------------------------
   1.  RESOURCE   USE:
--------------------------------------------------------------------------------

 NATOM  =     758 NTYPES =      15 NBONH =     272 MBONA  =     544
 NTHETH =     640 MTHETA =     836 NPHIH =    1390 MPHIA  =    1894
 NHPARM =       0 NPARM  =       0 NNB   =    4210 NRES   =      24
 NBONA  =     544 NTHETA =     836 NPHIA =    1894 NUMBND =      50
 NUMANG =     103 NPTRA  =      77 NATYP =      29 NPHB   =       0
 IFBOX  =       0 NMXRS  =      34 IFCAP =       0 NEXTRA =       0
 NCOPY  =       0

 Implicit solvent radii are modified Bondi radii (mbondi)

--------------------------------------------------------------------------------
   2.  CONTROL  DATA  FOR  THE  RUN
--------------------------------------------------------------------------------

default_name

General flags:
     imin    =       0, nmropt  =       0

Nature and format of input:
     ntx     =       1, irest   =       0, ntrx    =       1

Nature and format of output:
     ntxo    =       2, ntpr    =     100, ntrx    =       1, ntwr    =  100000
     iwrap   =       0, ntwx    =     100, ntwv    =       0, ntwe    =       0
     ioutfm  =       1, ntwprt  =       0, idecomp =       0, rbornstat=      0

Potential function:
     ntf     =       1, ntb     =       0, igb     =       1, nsnb    =      25
     ipol    =       0, gbsa    =       0, iesp    =       0
     dielc   =   1.00000, cut     = 999.00000, intdiel =   1.00000
     saltcon =   0.00000, offset  =   0.09000, gbalpha=    1.00000
     gbbeta  =   0.00000, gbgamma =   0.00000, surften =   0.00500
     rdt     =   0.00000, rgbmax  =  25.00000  extdiel =  78.50000
     alpb  =        0

Frozen or restrained atoms:
     ibelly  =       0, ntr     =       0

Molecular dynamics:
     nstlim  =    100000, nscm    =      1000, nrespa  =         1
     t       =   0.00000, dt      =   0.00100, vlimit  =  20.00000

Langevin dynamics temperature regulation:
     ig      =   71277
     temp0   = 300.00000, tempi   = 300.00000, gamma_ln=   1.00000

--------------------------------------------------------------------------------
   3.  ATOMIC COORDINATES AND VELOCITIES
--------------------------------------------------------------------------------

default_name
 begin time read from input coords =     0.000 ps

 Number of triangulated 3-point waters found:        0

--------------------------------------------------------------------------------
   4.  RESULTS
 NSTEP =        0   TIME(PS) =       0.000  TEMP(K) =   299.61  PRESS =     0.0
 Etot   =     -4526.8578  EKtot   =       676.9496  EPtot      =     -5203.8074
 BOND   =        38.0676  ANGLE   =       106.3306  DIHED      =       640.3512
 1-4 NB =       170.5356  1-4 EEL =     -3187.1040  VDWAALS    =      -440.1073
 EELEC  =      3741.8121  EGB     =     -6273.6931  RESTRAINT  =         0.0000
 ------------------------------------------------------------------------------

      A V E R A G E S   O V E R  100000 S T E P S

 NSTEP =   100000   TIME(PS) =     100.000  TEMP(K) =   300.05  PRESS =     0.0
 Etot   =     -3855.8218  EKtot   =       677.9332  EPtot      =     -4533.7550
 BOND   =       288.8628  ANGLE   =       409.9075  DIHED      =       697.7004
 1-4 NB =       186.5949  1-4 EEL =     -3178.7664  VDWAALS    =      -400.8125
 EELEC  =      3581.0981  EGB     =     -6118.3397  RESTRAINT  =         0.0000
 ------------------------------------------------------------------------------

      R M S  F L U C T U A T I O N S

 NSTEP =   100000   TIME(PS) =     100.000  TEMP(K) =    13.93  PRESS =     0.0
 Etot   =        57.3764  EKtot   =        31.4741  EPtot      =        32.9683
 BOND   =        17.1565  ANGLE   =        19.7714  DIHED      =        10.2502
 1-4 NB =         5.1121  1-4 EEL =        16.9858  VDWAALS    =         9.8816
 EELEC  =        59.0992  EGB     =        54.9700  RESTRAINT  =         0.0000
 ------------------------------------------------------------------------------
